
     RDKit          3D

 35 36  0  0  0  0  0  0  0  0999 V2000
    1.2477   -0.5168    0.4942 C   0  0  0  0  0  0  0  0  0  0  0  0
    2.6862   -0.6471    0.1398 C   0  0  0  0  0  0  0  0  0  0  0  0
    3.2456   -0.8856   -1.0503 N   0  0  0  0  0  0  0  0  0  0  0  0
    4.5964   -0.9274   -0.9313 C   0  0  0  0  0  0  0  0  0  0  0  0
    4.8668   -0.7073    0.3727 N   0  0  0  0  0  4  0  0  0  0  0  0
    3.7240   -0.5313    1.0604 C   0  0  0  0  0  0  0  0  0  0  0  0
    0.8111    0.9404    0.3665 C   0  0  2  0  0  0  0  0  0  0  0  0
    1.6610    1.6625    1.3029 N   0  0  0  0  0  0  0  0  0  0  0  0
   -0.6060    0.9801    0.8407 C   0  0  0  0  0  0  0  0  0  0  0  0
   -0.8241    1.5107    1.9895 O   0  0  0  0  0  0  0  0  0  0  0  0
   -1.6481    0.4577    0.0579 N   0  0  0  0  0  0  0  0  0  0  0  0
   -3.0451    0.4013    0.3668 C   0  0  2  0  0  0  0  0  0  0  0  0
   -1.5044   -0.1261   -1.2391 C   0  0  0  0  0  0  0  0  0  0  0  0
   -3.4630   -0.9408    0.8566 C   0  0  0  0  0  0  0  0  0  0  0  0
   -3.6964    0.7047   -0.9651 C   0  0  0  0  0  0  0  0  0  0  0  0
   -2.6111    0.6152   -2.0042 C   0  0  0  0  0  0  0  0  0  0  0  0
   -4.6497   -1.1959    1.1813 O   0  0  0  0  0  0  0  0  0  0  0  0
   -2.5384   -1.9727    0.9725 O   0  0  0  0  0  0  0  0  0  0  0  0
    1.0972   -0.7598    1.5869 H   0  0  0  0  0  0  0  0  0  0  0  0
    0.6382   -1.2140   -0.0761 H   0  0  0  0  0  0  0  0  0  0  0  0
    2.7011   -1.0187   -1.9387 H   0  0  0  0  0  0  0  0  0  0  0  0
    5.2680   -1.1061   -1.7564 H   0  0  0  0  0  0  0  0  0  0  0  0
    5.8263   -0.6764    0.7971 H   0  0  0  0  0  0  0  0  0  0  0  0
    3.6090   -0.3386    2.1099 H   0  0  0  0  0  0  0  0  0  0  0  0
    0.9665    1.3602   -0.6239 H   0  0  0  0  0  0  0  0  0  0  0  0
    2.5703    1.9114    0.8939 H   0  0  0  0  0  0  0  0  0  0  0  0
    1.2097    2.5553    1.6203 H   0  0  0  0  0  0  0  0  0  0  0  0
   -3.3144    1.1955    1.1128 H   0  0  0  0  0  0  0  0  0  0  0  0
   -1.7984   -1.1913   -1.2226 H   0  0  0  0  0  0  0  0  0  0  0  0
   -0.5193    0.0527   -1.7160 H   0  0  0  0  0  0  0  0  0  0  0  0
   -4.4966   -0.0356   -1.2182 H   0  0  0  0  0  0  0  0  0  0  0  0
   -4.1065    1.7436   -0.9506 H   0  0  0  0  0  0  0  0  0  0  0  0
   -2.9200    0.0414   -2.8955 H   0  0  0  0  0  0  0  0  0  0  0  0
   -2.1921    1.6061   -2.2592 H   0  0  0  0  0  0  0  0  0  0  0  0
   -2.7915   -2.9473    0.8100 H   0  0  0  0  0  0  0  0  0  0  0  0
  1  2  1  0
  2  3  1  0
  3  4  1  0
  4  5  2  0
  5  6  1  0
  6  2  2  0
  7  1  1  0
  8  7  1  0
  7  9  1  0
  9 10  2  0
  9 11  1  0
 11 12  1  0
 13 11  1  0
 12 14  1  0
 12 15  1  0
 16 13  1  0
 14 17  2  0
 14 18  1  0
 15 16  1  0
  1 19  1  0
  1 20  1  0
  3 21  1  0
  4 22  1  0
  5 23  1  0
  6 24  1  0
  7 25  1  6
  8 26  1  0
  8 27  1  0
 12 28  1  1
 13 29  1  0
 13 30  1  0
 15 31  1  0
 15 32  1  0
 16 33  1  0
 16 34  1  0
 18 35  1  0
M  CHG  1   5   1
M  END
