
     RDKit          3D

 35 36  0  0  0  0  0  0  0  0999 V2000
    1.2976    1.3885   -0.8175 C   0  0  0  0  0  0  0  0  0  0  0  0
    2.3981    0.4357   -0.6093 C   0  0  0  0  0  0  0  0  0  0  0  0
    2.4269   -0.8796   -0.8171 N   0  0  0  0  0  0  0  0  0  0  0  0
    3.6313   -1.3713   -0.4981 C   0  0  0  0  0  0  0  0  0  0  0  0
    4.3846   -0.3413   -0.0775 N   0  0  0  0  0  4  0  0  0  0  0  0
    3.6610    0.7758   -0.1334 C   0  0  0  0  0  0  0  0  0  0  0  0
    0.4451    1.5186    0.4477 C   0  0  2  0  0  0  0  0  0  0  0  0
    1.3932    2.0003    1.4599 N   0  0  0  0  0  0  0  0  0  0  0  0
    0.0252    0.1441    0.8214 C   0  0  0  0  0  0  0  0  0  0  0  0
    0.7106   -0.4363    1.7353 O   0  0  0  0  0  0  0  0  0  0  0  0
   -1.0802   -0.5296    0.2185 N   0  0  0  0  0  0  0  0  0  0  0  0
   -1.9787   -0.0513   -0.7977 C   0  0  2  0  0  0  0  0  0  0  0  0
   -1.4466   -1.8949    0.6056 C   0  0  0  0  0  0  0  0  0  0  0  0
   -2.8913    0.9919   -0.2152 C   0  0  0  0  0  0  0  0  0  0  0  0
   -2.8548   -1.2723   -1.1187 C   0  0  0  0  0  0  0  0  0  0  0  0
   -2.9259   -1.9004    0.2691 C   0  0  0  0  0  0  0  0  0  0  0  0
   -3.7422    1.5330   -0.9846 O   0  0  0  0  0  0  0  0  0  0  0  0
   -2.8548    1.3891    1.0971 O   0  0  0  0  0  0  0  0  0  0  0  0
    0.6842    1.1017   -1.6785 H   0  0  0  0  0  0  0  0  0  0  0  0
    1.6978    2.4191   -1.0066 H   0  0  0  0  0  0  0  0  0  0  0  0
    1.5869   -1.4119   -1.1842 H   0  0  0  0  0  0  0  0  0  0  0  0
    3.8894   -2.4217   -0.5859 H   0  0  0  0  0  0  0  0  0  0  0  0
    5.3894   -0.4499    0.2384 H   0  0  0  0  0  0  0  0  0  0  0  0
    4.0378    1.7515    0.1531 H   0  0  0  0  0  0  0  0  0  0  0  0
   -0.3735    2.2163    0.2722 H   0  0  0  0  0  0  0  0  0  0  0  0
    1.3012    3.0181    1.6065 H   0  0  0  0  0  0  0  0  0  0  0  0
    1.2193    1.5117    2.3613 H   0  0  0  0  0  0  0  0  0  0  0  0
   -1.5215    0.3231   -1.7070 H   0  0  0  0  0  0  0  0  0  0  0  0
   -1.2364   -2.1074    1.6520 H   0  0  0  0  0  0  0  0  0  0  0  0
   -0.9437   -2.5738   -0.1133 H   0  0  0  0  0  0  0  0  0  0  0  0
   -2.2705   -1.9239   -1.7697 H   0  0  0  0  0  0  0  0  0  0  0  0
   -3.8351   -0.9856   -1.5042 H   0  0  0  0  0  0  0  0  0  0  0  0
   -3.3601   -2.9079    0.2547 H   0  0  0  0  0  0  0  0  0  0  0  0
   -3.4105   -1.2092    0.9893 H   0  0  0  0  0  0  0  0  0  0  0  0
   -3.4538    2.1498    1.4364 H   0  0  0  0  0  0  0  0  0  0  0  0
  1  2  1  0
  2  3  1  0
  3  4  1  0
  4  5  2  0
  5  6  1  0
  6  2  2  0
  7  1  1  0
  8  7  1  0
  7  9  1  0
  9 10  2  0
  9 11  1  0
 11 12  1  0
 13 11  1  0
 12 14  1  0
 12 15  1  0
 16 13  1  0
 14 17  2  0
 14 18  1  0
 15 16  1  0
  1 19  1  0
  1 20  1  0
  3 21  1  0
  4 22  1  0
  5 23  1  0
  6 24  1  0
  7 25  1  6
  8 26  1  0
  8 27  1  0
 12 28  1  6
 13 29  1  0
 13 30  1  0
 15 31  1  0
 15 32  1  0
 16 33  1  0
 16 34  1  0
 18 35  1  0
M  CHG  1   5   1
M  END
