
     RDKit          3D

 34 35  0  0  0  0  0  0  0  0999 V2000
    2.0017   -1.0603    0.9473 C   0  0  0  0  0  0  0  0  0  0  0  0
    3.0516   -0.4853    0.0762 C   0  0  0  0  0  0  0  0  0  0  0  0
    4.1916    0.1570    0.4660 N   0  0  0  0  0  0  0  0  0  0  0  0
    4.8749    0.5145   -0.6320 C   0  0  0  0  0  0  0  0  0  0  0  0
    4.2122    0.1232   -1.7333 N   0  0  0  0  0  0  0  0  0  0  0  0
    3.0944   -0.4897   -1.2999 C   0  0  0  0  0  0  0  0  0  0  0  0
    0.9179   -0.0830    1.2942 C   0  0  2  0  0  0  0  0  0  0  0  0
   -0.0218   -0.7850    2.1395 N   0  0  0  0  0  0  0  0  0  0  0  0
    0.2784    0.5671    0.1458 C   0  0  0  0  0  0  0  0  0  0  0  0
    1.0789    1.2259   -0.6102 O   0  0  0  0  0  0  0  0  0  0  0  0
   -1.0851    0.5379   -0.1954 N   0  0  0  0  0  0  0  0  0  0  0  0
   -2.2400   -0.0814    0.4137 C   0  0  2  0  0  0  0  0  0  0  0  0
   -1.6559    1.2048   -1.3780 C   0  0  0  0  0  0  0  0  0  0  0  0
   -2.4735   -1.3671   -0.3139 C   0  0  0  0  0  0  0  0  0  0  0  0
   -3.4093    0.8670    0.1098 C   0  0  0  0  0  0  0  0  0  0  0  0
   -2.7808    1.9884   -0.7151 C   0  0  0  0  0  0  0  0  0  0  0  0
   -1.7458   -1.7522   -1.2645 O   0  0  0  0  0  0  0  0  0  0  0  0
   -3.5281   -2.1823    0.0573 O   0  0  0  0  0  0  0  0  0  0  0  0
    1.5488   -1.9176    0.4030 H   0  0  0  0  0  0  0  0  0  0  0  0
    2.5108   -1.4009    1.8718 H   0  0  0  0  0  0  0  0  0  0  0  0
    5.8147    1.0377   -0.6122 H   0  0  0  0  0  0  0  0  0  0  0  0
    4.4965    0.2608   -2.7344 H   0  0  0  0  0  0  0  0  0  0  0  0
    2.3466   -0.9192   -1.9585 H   0  0  0  0  0  0  0  0  0  0  0  0
    1.3713    0.7212    1.9481 H   0  0  0  0  0  0  0  0  0  0  0  0
    0.4344   -1.0262    3.0373 H   0  0  0  0  0  0  0  0  0  0  0  0
   -0.2240   -1.7058    1.6655 H   0  0  0  0  0  0  0  0  0  0  0  0
   -2.1947   -0.2113    1.4925 H   0  0  0  0  0  0  0  0  0  0  0  0
   -2.1057    0.4359   -2.0017 H   0  0  0  0  0  0  0  0  0  0  0  0
   -0.9272    1.8508   -1.8762 H   0  0  0  0  0  0  0  0  0  0  0  0
   -3.8555    1.2634    1.0386 H   0  0  0  0  0  0  0  0  0  0  0  0
   -4.1596    0.3573   -0.5366 H   0  0  0  0  0  0  0  0  0  0  0  0
   -2.3353    2.7382   -0.0206 H   0  0  0  0  0  0  0  0  0  0  0  0
   -3.4844    2.4183   -1.4291 H   0  0  0  0  0  0  0  0  0  0  0  0
   -3.9979   -2.8022   -0.5777 H   0  0  0  0  0  0  0  0  0  0  0  0
  1  2  1  0
  2  3  1  0
  3  4  2  0
  4  5  1  0
  5  6  1  0
  6  2  2  0
  7  1  1  0
  8  7  1  0
  7  9  1  0
  9 10  2  0
  9 11  1  0
 11 12  1  0
 13 11  1  0
 12 14  1  0
 12 15  1  0
 16 13  1  0
 14 17  2  0
 14 18  1  0
 15 16  1  0
  1 19  1  0
  1 20  1  0
  4 21  1  0
  5 22  1  0
  6 23  1  0
  7 24  1  1
  8 25  1  0
  8 26  1  0
 12 27  1  1
 13 28  1  0
 13 29  1  0
 15 30  1  0
 15 31  1  0
 16 32  1  0
 16 33  1  0
 18 34  1  0
M  END
