
     RDKit          3D

 35 36  0  0  0  0  0  0  0  0999 V2000
    2.0970   -1.3908   -0.1112 C   0  0  0  0  0  0  0  0  0  0  0  0
    2.8998   -0.1850    0.0426 C   0  0  0  0  0  0  0  0  0  0  0  0
    2.9485    0.8803   -0.7660 N   0  0  0  0  0  4  0  0  0  0  0  0
    3.8237    1.7664   -0.2450 C   0  0  0  0  0  0  0  0  0  0  0  0
    4.3314    1.2707    0.8897 N   0  0  0  0  0  0  0  0  0  0  0  0
    3.7689    0.0729    1.0727 C   0  0  0  0  0  0  0  0  0  0  0  0
    0.7355   -1.3528    0.5307 C   0  0  2  0  0  0  0  0  0  0  0  0
    0.1033   -2.6026    0.2793 N   0  0  0  0  0  0  0  0  0  0  0  0
   -0.0333   -0.1596    0.1747 C   0  0  0  0  0  0  0  0  0  0  0  0
    0.5593    0.9374    0.4101 O   0  0  0  0  0  0  0  0  0  0  0  0
   -1.3363   -0.1192   -0.3905 N   0  0  0  0  0  0  0  0  0  0  0  0
   -2.0483    1.1129   -0.7213 C   0  0  2  0  0  0  0  0  0  0  0  0
   -2.2181   -1.1835   -0.7674 C   0  0  0  0  0  0  0  0  0  0  0  0
   -2.1268    2.0443    0.4272 C   0  0  0  0  0  0  0  0  0  0  0  0
   -3.4923    0.7174   -1.0205 C   0  0  0  0  0  0  0  0  0  0  0  0
   -3.5726   -0.6323   -0.2942 C   0  0  0  0  0  0  0  0  0  0  0  0
   -2.6622    3.1577    0.2577 O   0  0  0  0  0  0  0  0  0  0  0  0
   -1.6131    1.6656    1.6461 O   0  0  0  0  0  0  0  0  0  0  0  0
    2.6300   -2.2936    0.3095 H   0  0  0  0  0  0  0  0  0  0  0  0
    2.0039   -1.6079   -1.1983 H   0  0  0  0  0  0  0  0  0  0  0  0
    2.4344    1.0692   -1.6570 H   0  0  0  0  0  0  0  0  0  0  0  0
    4.0900    2.7330   -0.6611 H   0  0  0  0  0  0  0  0  0  0  0  0
    5.0381    1.7169    1.5323 H   0  0  0  0  0  0  0  0  0  0  0  0
    4.0062   -0.5648    1.9379 H   0  0  0  0  0  0  0  0  0  0  0  0
    0.8805   -1.2994    1.6535 H   0  0  0  0  0  0  0  0  0  0  0  0
    0.3978   -3.0750   -0.5915 H   0  0  0  0  0  0  0  0  0  0  0  0
    0.0317   -3.2271    1.1029 H   0  0  0  0  0  0  0  0  0  0  0  0
   -1.6169    1.6051   -1.6163 H   0  0  0  0  0  0  0  0  0  0  0  0
   -2.1001   -2.1363   -0.2694 H   0  0  0  0  0  0  0  0  0  0  0  0
   -2.2840   -1.3084   -1.8695 H   0  0  0  0  0  0  0  0  0  0  0  0
   -3.6440    0.4903   -2.0953 H   0  0  0  0  0  0  0  0  0  0  0  0
   -4.2188    1.4367   -0.6452 H   0  0  0  0  0  0  0  0  0  0  0  0
   -4.4082   -1.2391   -0.6302 H   0  0  0  0  0  0  0  0  0  0  0  0
   -3.5111   -0.4298    0.7730 H   0  0  0  0  0  0  0  0  0  0  0  0
   -1.8935    2.1306    2.5100 H   0  0  0  0  0  0  0  0  0  0  0  0
  1  2  1  0
  2  3  1  0
  3  4  2  0
  4  5  1  0
  5  6  1  0
  6  2  2  0
  7  1  1  0
  8  7  1  0
  7  9  1  0
  9 10  2  0
  9 11  1  0
 11 12  1  0
 13 11  1  0
 12 14  1  0
 12 15  1  0
 16 13  1  0
 14 17  2  0
 14 18  1  0
 15 16  1  0
  1 19  1  0
  1 20  1  0
  3 21  1  0
  4 22  1  0
  5 23  1  0
  6 24  1  0
  7 25  1  1
  8 26  1  0
  8 27  1  0
 12 28  1  6
 13 29  1  0
 13 30  1  0
 15 31  1  0
 15 32  1  0
 16 33  1  0
 16 34  1  0
 18 35  1  0
M  CHG  1   3   1
M  END
