
     RDKit          3D

 34 35  0  0  0  0  0  0  0  0999 V2000
    1.7571   -0.4540    0.1091 C   0  0  0  0  0  0  0  0  0  0  0  0
    2.9893    0.3215   -0.1361 C   0  0  0  0  0  0  0  0  0  0  0  0
    4.0284   -0.1320   -0.8563 N   0  0  0  0  0  0  0  0  0  0  0  0
    4.9857    0.7988   -0.8946 C   0  0  0  0  0  0  0  0  0  0  0  0
    4.5535    1.8620   -0.1895 N   0  0  0  0  0  0  0  0  0  0  0  0
    3.3444    1.5843    0.2751 C   0  0  0  0  0  0  0  0  0  0  0  0
    0.7637    0.3260    0.9584 C   0  0  2  0  0  0  0  0  0  0  0  0
    1.3840    0.6435    2.2472 N   0  0  0  0  0  0  0  0  0  0  0  0
   -0.3807   -0.5756    1.2388 C   0  0  0  0  0  0  0  0  0  0  0  0
   -0.3722   -1.1871    2.3685 O   0  0  0  0  0  0  0  0  0  0  0  0
   -1.4710   -0.8113    0.3702 N   0  0  0  0  0  0  0  0  0  0  0  0
   -1.6885   -0.2067   -0.9133 C   0  0  2  0  0  0  0  0  0  0  0  0
   -2.5691   -1.7389    0.6674 C   0  0  0  0  0  0  0  0  0  0  0  0
   -2.0998    1.2265   -0.7874 C   0  0  0  0  0  0  0  0  0  0  0  0
   -2.9132   -0.9498   -1.4825 C   0  0  0  0  0  0  0  0  0  0  0  0
   -3.6834   -1.1466   -0.1685 C   0  0  0  0  0  0  0  0  0  0  0  0
   -2.2540    1.7830    0.3299 O   0  0  0  0  0  0  0  0  0  0  0  0
   -2.3315    2.0129   -1.9065 O   0  0  0  0  0  0  0  0  0  0  0  0
    1.9401   -1.4298    0.5961 H   0  0  0  0  0  0  0  0  0  0  0  0
    1.2937   -0.6260   -0.8727 H   0  0  0  0  0  0  0  0  0  0  0  0
    4.1015   -1.0739   -1.3288 H   0  0  0  0  0  0  0  0  0  0  0  0
    5.9588    0.7722   -1.3844 H   0  0  0  0  0  0  0  0  0  0  0  0
    2.7227    2.2245    0.8770 H   0  0  0  0  0  0  0  0  0  0  0  0
    0.4198    1.2305    0.4795 H   0  0  0  0  0  0  0  0  0  0  0  0
    1.1164    1.6100    2.5513 H   0  0  0  0  0  0  0  0  0  0  0  0
    1.1571   -0.0707    2.9737 H   0  0  0  0  0  0  0  0  0  0  0  0
   -0.8662   -0.2806   -1.6128 H   0  0  0  0  0  0  0  0  0  0  0  0
   -2.8118   -1.7517    1.7454 H   0  0  0  0  0  0  0  0  0  0  0  0
   -2.3253   -2.7162    0.2456 H   0  0  0  0  0  0  0  0  0  0  0  0
   -2.5648   -1.9258   -1.8131 H   0  0  0  0  0  0  0  0  0  0  0  0
   -3.4601   -0.3505   -2.2030 H   0  0  0  0  0  0  0  0  0  0  0  0
   -3.9471   -0.1554    0.2099 H   0  0  0  0  0  0  0  0  0  0  0  0
   -4.5265   -1.8340   -0.3016 H   0  0  0  0  0  0  0  0  0  0  0  0
   -2.2507    3.0210   -1.8140 H   0  0  0  0  0  0  0  0  0  0  0  0
  1  2  1  0
  2  3  1  0
  3  4  1  0
  4  5  2  0
  5  6  1  0
  6  2  2  0
  7  1  1  0
  8  7  1  0
  7  9  1  0
  9 10  2  0
  9 11  1  0
 11 12  1  0
 13 11  1  0
 12 14  1  0
 12 15  1  0
 16 13  1  0
 14 17  2  0
 14 18  1  0
 15 16  1  0
  1 19  1  0
  1 20  1  0
  3 21  1  0
  4 22  1  0
  6 23  1  0
  7 24  1  6
  8 25  1  0
  8 26  1  0
 12 27  1  6
 13 28  1  0
 13 29  1  0
 15 30  1  0
 15 31  1  0
 16 32  1  0
 16 33  1  0
 18 34  1  0
M  END
