
     RDKit          3D

 34 35  0  0  0  0  0  0  0  0999 V2000
    2.0557   -1.1338    0.2849 C   0  0  0  0  0  0  0  0  0  0  0  0
    3.3660   -0.5391   -0.0626 C   0  0  0  0  0  0  0  0  0  0  0  0
    4.0718    0.3784    0.6147 N   0  0  0  0  0  0  0  0  0  0  0  0
    5.2156    0.6571   -0.0388 C   0  0  0  0  0  0  0  0  0  0  0  0
    5.2221   -0.0972   -1.1380 N   0  0  0  0  0  0  0  0  0  0  0  0
    4.1040   -0.8417   -1.1835 C   0  0  0  0  0  0  0  0  0  0  0  0
    0.9781   -0.2472   -0.3539 C   0  0  2  0  0  0  0  0  0  0  0  0
    1.0372    1.0731    0.1238 N   0  0  0  0  0  0  0  0  0  0  0  0
   -0.3458   -0.8655   -0.2568 C   0  0  0  0  0  0  0  0  0  0  0  0
   -0.4269   -2.0622   -0.7083 O   0  0  0  0  0  0  0  0  0  0  0  0
   -1.5095   -0.2374    0.2905 N   0  0  0  0  0  0  0  0  0  0  0  0
   -2.7988   -0.8477    0.3713 C   0  0  2  0  0  0  0  0  0  0  0  0
   -1.5889    1.0820    0.8425 C   0  0  0  0  0  0  0  0  0  0  0  0
   -3.5794   -0.7289   -0.8759 C   0  0  0  0  0  0  0  0  0  0  0  0
   -3.4781   -0.1663    1.5353 C   0  0  0  0  0  0  0  0  0  0  0  0
   -2.9086    1.2503    1.5167 C   0  0  0  0  0  0  0  0  0  0  0  0
   -4.7304   -1.2349   -0.9070 O   0  0  0  0  0  0  0  0  0  0  0  0
   -3.1177   -0.0906   -2.0186 O   0  0  0  0  0  0  0  0  0  0  0  0
    1.9281   -1.1982    1.3814 H   0  0  0  0  0  0  0  0  0  0  0  0
    2.0005   -2.1374   -0.1795 H   0  0  0  0  0  0  0  0  0  0  0  0
    3.8201    0.8332    1.5078 H   0  0  0  0  0  0  0  0  0  0  0  0
    5.9740    1.3624    0.2824 H   0  0  0  0  0  0  0  0  0  0  0  0
    3.8416   -1.5538   -1.9730 H   0  0  0  0  0  0  0  0  0  0  0  0
    1.2957   -0.2128   -1.4428 H   0  0  0  0  0  0  0  0  0  0  0  0
    0.8820    1.8335   -0.5411 H   0  0  0  0  0  0  0  0  0  0  0  0
    1.5261    1.2706    0.9810 H   0  0  0  0  0  0  0  0  0  0  0  0
   -2.6958   -1.9304    0.6655 H   0  0  0  0  0  0  0  0  0  0  0  0
   -1.4729    1.8563    0.0314 H   0  0  0  0  0  0  0  0  0  0  0  0
   -0.7912    1.2868    1.5888 H   0  0  0  0  0  0  0  0  0  0  0  0
   -3.1704   -0.6317    2.5025 H   0  0  0  0  0  0  0  0  0  0  0  0
   -4.5591   -0.1727    1.3919 H   0  0  0  0  0  0  0  0  0  0  0  0
   -3.6076    1.9160    0.9602 H   0  0  0  0  0  0  0  0  0  0  0  0
   -2.7917    1.6604    2.5390 H   0  0  0  0  0  0  0  0  0  0  0  0
   -3.7461    0.4696   -2.5934 H   0  0  0  0  0  0  0  0  0  0  0  0
  1  2  1  0
  2  3  1  0
  3  4  1  0
  4  5  2  0
  5  6  1  0
  6  2  2  0
  7  1  1  0
  8  7  1  0
  7  9  1  0
  9 10  2  0
  9 11  1  0
 11 12  1  0
 13 11  1  0
 12 14  1  0
 12 15  1  0
 16 13  1  0
 14 17  2  0
 14 18  1  0
 15 16  1  0
  1 19  1  0
  1 20  1  0
  3 21  1  0
  4 22  1  0
  6 23  1  0
  7 24  1  6
  8 25  1  0
  8 26  1  0
 12 27  1  1
 13 28  1  0
 13 29  1  0
 15 30  1  0
 15 31  1  0
 16 32  1  0
 16 33  1  0
 18 34  1  0
M  END
