
     RDKit          3D

 45 44  0  0  0  0  0  0  0  0999 V2000
   -3.0488   -2.6202    0.6580 C   0  0  0  0  0  0  0  0  0  0  0  0
   -3.7597   -3.5393    1.5150 N   0  0  0  0  0  4  0  0  0  0  0  0
   -2.0311   -1.8048    1.4472 C   0  0  0  0  0  0  0  0  0  0  0  0
   -1.2910   -0.8442    0.5402 C   0  0  0  0  0  0  0  0  0  0  0  0
   -0.3109   -0.0841    1.4015 C   0  0  0  0  0  0  0  0  0  0  0  0
    0.4982    0.9170    0.6076 C   0  0  2  0  0  0  0  0  0  0  0  0
   -0.3200    1.9080   -0.0384 N   0  0  0  0  0  0  0  0  0  0  0  0
    1.3132    0.2159   -0.4280 C   0  0  0  0  0  0  0  0  0  0  0  0
   -0.2218    3.3098    0.2072 C   0  0  0  0  0  0  0  0  0  0  0  0
    1.2297    0.5144   -1.6526 O   0  0  0  0  0  0  0  0  0  0  0  0
    2.2254   -0.8237   -0.0910 N   0  0  0  0  0  0  0  0  0  0  0  0
   -1.0501    4.3164   -0.4463 C   0  0  1  0  0  0  0  0  0  0  0  0
    0.6442    3.6636    1.0459 O   0  0  0  0  0  0  0  0  0  0  0  0
    3.0299   -1.5223   -1.0746 C   0  0  2  0  0  0  0  0  0  0  0  0
   -0.6850    5.6318    0.0360 N   0  0  0  0  0  0  0  0  0  0  0  0
   -1.0442    4.2495   -1.9466 C   0  0  0  0  0  0  0  0  0  0  0  0
    2.6955   -2.9682   -1.0461 C   0  0  0  0  0  0  0  0  0  0  0  0
    4.5084   -1.3966   -0.7821 C   0  0  0  0  0  0  0  0  0  0  0  0
    1.8262   -3.3861   -0.2403 O   0  0  0  0  0  0  0  0  0  0  0  0
    3.2947   -3.8959   -1.8678 O   0  0  0  0  0  0  0  0  0  0  0  0
   -3.7265   -1.9858    0.0844 H   0  0  0  0  0  0  0  0  0  0  0  0
   -2.4764   -3.2448   -0.0724 H   0  0  0  0  0  0  0  0  0  0  0  0
   -3.1246   -3.9361    2.2456 H   0  0  0  0  0  0  0  0  0  0  0  0
   -4.5355   -3.0288    2.0090 H   0  0  0  0  0  0  0  0  0  0  0  0
   -4.1194   -4.3608    0.9679 H   0  0  0  0  0  0  0  0  0  0  0  0
   -1.3258   -2.4749    1.9773 H   0  0  0  0  0  0  0  0  0  0  0  0
   -2.6012   -1.2645    2.2308 H   0  0  0  0  0  0  0  0  0  0  0  0
   -2.0040   -0.1653    0.0358 H   0  0  0  0  0  0  0  0  0  0  0  0
   -0.7560   -1.4368   -0.2236 H   0  0  0  0  0  0  0  0  0  0  0  0
   -0.8318    0.4068    2.2205 H   0  0  0  0  0  0  0  0  0  0  0  0
    0.3953   -0.8216    1.8232 H   0  0  0  0  0  0  0  0  0  0  0  0
    1.2133    1.3799    1.3190 H   0  0  0  0  0  0  0  0  0  0  0  0
   -1.0407    1.6180   -0.7359 H   0  0  0  0  0  0  0  0  0  0  0  0
    2.2934   -1.0693    0.9206 H   0  0  0  0  0  0  0  0  0  0  0  0
   -2.1165    4.1505   -0.1219 H   0  0  0  0  0  0  0  0  0  0  0  0
    2.8624   -1.1683   -2.0912 H   0  0  0  0  0  0  0  0  0  0  0  0
   -0.0668    6.1333   -0.6437 H   0  0  0  0  0  0  0  0  0  0  0  0
   -0.3103    5.6099    1.0041 H   0  0  0  0  0  0  0  0  0  0  0  0
   -2.0132    4.6274   -2.3502 H   0  0  0  0  0  0  0  0  0  0  0  0
   -0.8762    3.2488   -2.3492 H   0  0  0  0  0  0  0  0  0  0  0  0
   -0.2523    4.9376   -2.3095 H   0  0  0  0  0  0  0  0  0  0  0  0
    4.6319   -1.0999    0.2780 H   0  0  0  0  0  0  0  0  0  0  0  0
    5.0201   -2.3508   -0.9694 H   0  0  0  0  0  0  0  0  0  0  0  0
    4.9639   -0.6512   -1.4664 H   0  0  0  0  0  0  0  0  0  0  0  0
    3.2945   -4.8940   -1.6273 H   0  0  0  0  0  0  0  0  0  0  0  0
  1  2  1  0
  3  1  1  0
  4  3  1  0
  5  4  1  0
  6  5  1  0
  7  6  1  0
  6  8  1  0
  9  7  1  0
  8 10  2  0
  8 11  1  0
 12  9  1  0
  9 13  2  0
 11 14  1  0
 15 12  1  0
 12 16  1  0
 14 17  1  0
 14 18  1  0
 17 19  2  0
 17 20  1  0
  1 21  1  0
  1 22  1  0
  2 23  1  0
  2 24  1  0
  2 25  1  0
  3 26  1  0
  3 27  1  0
  4 28  1  0
  4 29  1  0
  5 30  1  0
  5 31  1  0
  6 32  1  1
  7 33  1  0
 11 34  1  0
 12 35  1  1
 14 36  1  6
 15 37  1  0
 15 38  1  0
 16 39  1  0
 16 40  1  0
 16 41  1  0
 18 42  1  0
 18 43  1  0
 18 44  1  0
 20 45  1  0
M  CHG  1   2   1
M  END
