
     RDKit          3D

 18 17  0  0  0  0  0  0  0  0999 V2000
    1.6806    0.3179   -0.0500 C   0  0  0  0  0  0  0  0  0  0  0  0
    1.6558    0.8848   -1.1851 O   0  0  0  0  0  0  0  0  0  0  0  0
    2.9766    0.1938    0.6671 C   0  0  0  0  0  0  0  0  0  0  0  0
    0.4551   -0.1579    0.4500 N   0  0  0  0  0  0  0  0  0  0  0  0
   -0.7808   -0.0122   -0.2882 C   0  0  2  0  0  0  0  0  0  0  0  0
   -1.7285    0.7473    0.5490 C   0  0  0  0  0  0  0  0  0  0  0  0
   -1.3773    1.1327    1.6832 O   0  0  0  0  0  0  0  0  0  0  0  0
   -1.4013   -1.3547   -0.6184 C   0  0  0  0  0  0  0  0  0  0  0  0
   -3.0026    1.0290    0.0731 O   0  0  0  0  0  0  0  0  0  0  0  0
    3.4826    1.1934    0.6604 H   0  0  0  0  0  0  0  0  0  0  0  0
    2.8306   -0.2043    1.6723 H   0  0  0  0  0  0  0  0  0  0  0  0
    3.5859   -0.5607    0.0984 H   0  0  0  0  0  0  0  0  0  0  0  0
    0.4252   -0.6272    1.3715 H   0  0  0  0  0  0  0  0  0  0  0  0
   -0.5973    0.5080   -1.2548 H   0  0  0  0  0  0  0  0  0  0  0  0
   -1.3674   -2.0396    0.2550 H   0  0  0  0  0  0  0  0  0  0  0  0
   -0.9263   -1.7580   -1.5203 H   0  0  0  0  0  0  0  0  0  0  0  0
   -2.4626   -1.1699   -0.8487 H   0  0  0  0  0  0  0  0  0  0  0  0
   -3.4481    1.8777    0.4482 H   0  0  0  0  0  0  0  0  0  0  0  0
  1  3  1  0
  1  2  2  0
  4  5  1  0
  5  6  1  0
  6  7  2  0
  5  8  1  0
  1  4  1  0
  6  9  1  0
  3 10  1  0
  3 11  1  0
  3 12  1  0
  4 13  1  0
  5 14  1  6
  8 15  1  0
  8 16  1  0
  8 17  1  0
  9 18  1  0
M  END
