
     RDKit          3D

 22 21  0  0  0  0  0  0  0  0999 V2000
   -3.1609   -1.4165    2.0962 O   0  0  0  0  0  1  0  0  0  0  0  0
   -2.3368   -0.3104    1.9205 C   0  0  0  0  0  0  0  0  0  0  0  0
   -1.8016    0.0325    0.5697 C   0  0  1  0  0  0  0  0  0  0  0  0
   -2.0719    0.3728    2.9429 O   0  0  0  0  0  0  0  0  0  0  0  0
   -0.3763   -0.2304    0.4734 N   0  0  0  0  0  0  0  0  0  0  0  0
   -2.5927   -0.6854   -0.4939 C   0  0  0  0  0  0  0  0  0  0  0  0
    0.5781    0.8040    0.2617 C   0  0  0  0  0  0  0  0  0  0  0  0
    2.0369    0.4958    0.1679 C   0  0  1  0  0  0  0  0  0  0  0  0
    0.1532    1.9826    0.1566 O   0  0  0  0  0  0  0  0  0  0  0  0
    2.3084   -0.8997    0.3127 N   0  0  0  0  0  0  0  0  0  0  0  0
    2.6375    0.9818   -1.1170 C   0  0  0  0  0  0  0  0  0  0  0  0
   -1.9346    1.1271    0.4480 H   0  0  0  0  0  0  0  0  0  0  0  0
    0.0198   -1.2066    0.5566 H   0  0  0  0  0  0  0  0  0  0  0  0
   -2.7587   -0.0681   -1.3804 H   0  0  0  0  0  0  0  0  0  0  0  0
   -2.0816   -1.6057   -0.8174 H   0  0  0  0  0  0  0  0  0  0  0  0
   -3.6062   -0.9510   -0.0848 H   0  0  0  0  0  0  0  0  0  0  0  0
    2.5523    1.0245    1.0074 H   0  0  0  0  0  0  0  0  0  0  0  0
    2.1313   -1.2366    1.2856 H   0  0  0  0  0  0  0  0  0  0  0  0
    1.8421   -1.4876   -0.4137 H   0  0  0  0  0  0  0  0  0  0  0  0
    3.0347    1.9894   -0.9720 H   0  0  0  0  0  0  0  0  0  0  0  0
    1.9167    0.9641   -1.9664 H   0  0  0  0  0  0  0  0  0  0  0  0
    3.5101    0.3234   -1.3531 H   0  0  0  0  0  0  0  0  0  0  0  0
  2  1  1  0
  3  2  1  0
  2  4  2  0
  5  3  1  0
  3  6  1  0
  7  5  1  0
  8  7  1  0
  7  9  2  0
 10  8  1  0
  8 11  1  0
  3 12  1  6
  5 13  1  0
  6 14  1  0
  6 15  1  0
  6 16  1  0
  8 17  1  1
 10 18  1  0
 10 19  1  0
 11 20  1  0
 11 21  1  0
 11 22  1  0
M  CHG  1   1  -1
M  END
