
     RDKit          3D

 24 23  0  0  0  0  0  0  0  0999 V2000
    3.0732   -1.0257   -0.3345 N   0  0  0  0  0  4  0  0  0  0  0  0
    1.8617   -0.7305    0.3943 C   0  0  2  0  0  0  0  0  0  0  0  0
    0.7267   -0.4445   -0.5225 C   0  0  0  0  0  0  0  0  0  0  0  0
    2.1386    0.5450    1.1932 C   0  0  0  0  0  0  0  0  0  0  0  0
    0.9151   -0.4836   -1.7765 O   0  0  0  0  0  0  0  0  0  0  0  0
   -0.5525   -0.1314   -0.0070 N   0  0  0  0  0  0  0  0  0  0  0  0
   -1.6682    0.1496   -0.8744 C   0  0  2  0  0  0  0  0  0  0  0  0
   -2.2040    1.5270   -0.6440 C   0  0  0  0  0  0  0  0  0  0  0  0
   -2.7866   -0.8433   -0.6040 C   0  0  0  0  0  0  0  0  0  0  0  0
   -1.6418    2.2307    0.2332 O   0  0  0  0  0  0  0  0  0  0  0  0
   -3.2684    1.9801   -1.3751 O   0  0  0  0  0  0  0  0  0  0  0  0
    3.0438   -1.9606   -0.8073 H   0  0  0  0  0  0  0  0  0  0  0  0
    3.2188   -0.3159   -1.0721 H   0  0  0  0  0  0  0  0  0  0  0  0
    3.8628   -0.9971    0.3637 H   0  0  0  0  0  0  0  0  0  0  0  0
    1.6352   -1.5321    1.1217 H   0  0  0  0  0  0  0  0  0  0  0  0
    2.8305    0.3428    2.0339 H   0  0  0  0  0  0  0  0  0  0  0  0
    1.1969    1.0350    1.5161 H   0  0  0  0  0  0  0  0  0  0  0  0
    2.6723    1.2568    0.5167 H   0  0  0  0  0  0  0  0  0  0  0  0
   -0.6857   -0.1047    1.0371 H   0  0  0  0  0  0  0  0  0  0  0  0
   -1.3195    0.0696   -1.9223 H   0  0  0  0  0  0  0  0  0  0  0  0
   -2.8163   -1.6561   -1.3528 H   0  0  0  0  0  0  0  0  0  0  0  0
   -3.7794   -0.3547   -0.5528 H   0  0  0  0  0  0  0  0  0  0  0  0
   -2.6051   -1.2849    0.3987 H   0  0  0  0  0  0  0  0  0  0  0  0
   -3.8481    2.7286   -1.0319 H   0  0  0  0  0  0  0  0  0  0  0  0
  1  2  1  0
  2  3  1  0
  2  4  1  0
  3  5  2  0
  3  6  1  0
  6  7  1  0
  7  8  1  0
  7  9  1  0
  8 10  2  0
  8 11  1  0
  1 12  1  0
  1 13  1  0
  1 14  1  0
  2 15  1  1
  4 16  1  0
  4 17  1  0
  4 18  1  0
  6 19  1  0
  7 20  1  6
  9 21  1  0
  9 22  1  0
  9 23  1  0
 11 24  1  0
M  CHG  1   1   1
M  END
