
     RDKit          3D

 23 22  0  0  0  0  0  0  0  0999 V2000
   -3.1540    1.3300   -0.2878 N   0  0  0  0  0  0  0  0  0  0  0  0
   -2.1182    0.6294    0.4456 C   0  0  2  0  0  0  0  0  0  0  0  0
   -0.8218    0.6857   -0.2933 C   0  0  0  0  0  0  0  0  0  0  0  0
   -0.7531    1.2830   -1.3876 O   0  0  0  0  0  0  0  0  0  0  0  0
   -2.4992   -0.8185    0.6367 C   0  0  0  0  0  0  0  0  0  0  0  0
    0.3551    0.0730    0.2142 N   0  0  0  0  0  0  0  0  0  0  0  0
    1.6216    0.1174   -0.4888 C   0  0  2  0  0  0  0  0  0  0  0  0
    2.0882   -1.2675   -0.7284 C   0  0  0  0  0  0  0  0  0  0  0  0
    1.4076   -2.2535   -0.3376 O   0  0  0  0  0  0  0  0  0  0  0  0
    2.6704    0.8217    0.3625 C   0  0  0  0  0  0  0  0  0  0  0  0
    3.2822   -1.5353   -1.3867 O   0  0  0  0  0  0  0  0  0  0  0  0
   -2.7728    1.6853   -1.2139 H   0  0  0  0  0  0  0  0  0  0  0  0
   -3.9166    0.6380   -0.5494 H   0  0  0  0  0  0  0  0  0  0  0  0
   -2.0105    1.1260    1.4292 H   0  0  0  0  0  0  0  0  0  0  0  0
   -3.4832   -1.0114    0.1211 H   0  0  0  0  0  0  0  0  0  0  0  0
   -2.6101   -1.0287    1.7045 H   0  0  0  0  0  0  0  0  0  0  0  0
   -1.7361   -1.4922    0.1961 H   0  0  0  0  0  0  0  0  0  0  0  0
    0.2781   -0.4297    1.1446 H   0  0  0  0  0  0  0  0  0  0  0  0
    1.4770    0.6852   -1.4256 H   0  0  0  0  0  0  0  0  0  0  0  0
    2.8307    1.8499   -0.0452 H   0  0  0  0  0  0  0  0  0  0  0  0
    3.6298    0.2840    0.2757 H   0  0  0  0  0  0  0  0  0  0  0  0
    2.3552    0.9392    1.4061 H   0  0  0  0  0  0  0  0  0  0  0  0
    3.8797   -2.3112   -1.1093 H   0  0  0  0  0  0  0  0  0  0  0  0
  1  2  1  0
  2  3  1  0
  3  4  2  0
  2  5  1  0
  6  7  1  0
  7  8  1  0
  8  9  2  0
  7 10  1  0
  3  6  1  0
  8 11  1  0
  1 12  1  0
  1 13  1  0
  2 14  1  1
  5 15  1  0
  5 16  1  0
  5 17  1  0
  6 18  1  0
  7 19  1  6
 10 20  1  0
 10 21  1  0
 10 22  1  0
 11 23  1  0
M  END
