
     RDKit          3D

 24 23  0  0  0  0  0  0  0  0999 V2000
   -2.6143    0.0244   -1.3898 N   0  0  0  0  0  4  0  0  0  0  0  0
   -1.7918    0.5766   -0.3956 C   0  0  2  0  0  0  0  0  0  0  0  0
   -0.6012   -0.3144   -0.0940 C   0  0  0  0  0  0  0  0  0  0  0  0
   -2.6063    0.3835    0.9816 C   0  0  0  0  0  0  0  0  0  0  0  0
   -0.7718   -1.5375    0.0315 O   0  0  0  0  0  0  0  0  0  0  0  0
    0.6498    0.4108    0.0350 N   0  0  0  0  0  0  0  0  0  0  0  0
    1.7963   -0.3861    0.5256 C   0  0  2  0  0  0  0  0  0  0  0  0
    2.8923    0.5202    0.6410 C   0  0  0  0  0  0  0  0  0  0  0  0
    2.1677   -1.5453   -0.4364 C   0  0  0  0  0  0  0  0  0  0  0  0
    4.0334    0.2191    0.2001 O   0  0  0  0  0  0  0  0  0  0  0  0
    2.7837    1.7730    1.2172 O   0  0  0  0  0  0  0  0  0  0  0  0
   -2.1259   -0.0205   -2.2975 H   0  0  0  0  0  0  0  0  0  0  0  0
   -2.9527   -0.9244   -1.0423 H   0  0  0  0  0  0  0  0  0  0  0  0
   -3.5025    0.6145   -1.4478 H   0  0  0  0  0  0  0  0  0  0  0  0
   -1.5528    1.6341   -0.4264 H   0  0  0  0  0  0  0  0  0  0  0  0
   -1.8417    0.4799    1.7872 H   0  0  0  0  0  0  0  0  0  0  0  0
   -2.9879   -0.6488    0.8759 H   0  0  0  0  0  0  0  0  0  0  0  0
   -3.3872    1.1010    0.9905 H   0  0  0  0  0  0  0  0  0  0  0  0
    0.7335    1.3913   -0.1861 H   0  0  0  0  0  0  0  0  0  0  0  0
    1.4784   -0.8712    1.4930 H   0  0  0  0  0  0  0  0  0  0  0  0
    1.8350   -2.5010    0.0200 H   0  0  0  0  0  0  0  0  0  0  0  0
    3.2912   -1.5105   -0.4938 H   0  0  0  0  0  0  0  0  0  0  0  0
    1.6807   -1.3866   -1.3657 H   0  0  0  0  0  0  0  0  0  0  0  0
    3.3943    2.5178    0.7768 H   0  0  0  0  0  0  0  0  0  0  0  0
  1  2  1  0
  2  3  1  0
  2  4  1  0
  3  5  2  0
  3  6  1  0
  6  7  1  0
  7  8  1  0
  7  9  1  0
  8 10  2  0
  8 11  1  0
  1 12  1  0
  1 13  1  0
  1 14  1  0
  2 15  1  6
  4 16  1  0
  4 17  1  0
  4 18  1  0
  6 19  1  0
  7 20  1  1
  9 21  1  0
  9 22  1  0
  9 23  1  0
 11 24  1  0
M  CHG  1   1   1
M  END
